202

Si         0.00000         0.00000         0.00000
O          0.89000         0.89000         0.89000
O         -0.89000        -0.89000         0.89000
O         -0.89000         0.89000        -0.89000
O          0.89000        -0.89000        -0.89000
Si         1.78000         1.78000         1.78000
Si        -1.78000        -1.78000         1.78000
Si        -1.78000         1.78000        -1.78000
Si         1.78000        -1.78000        -1.78000
O          2.67000         2.67000         0.89000
O         -2.67000        -2.67000         0.89000
O          2.67000         0.89000         2.67000
O          0.89000         2.67000         2.67000
O         -2.67000        -0.89000         2.67000
O         -0.89000        -2.67000         2.67000
O         -2.67000         2.67000        -0.89000
O          2.67000        -2.67000        -0.89000
O         -2.67000         0.89000        -2.67000
O         -0.89000         2.67000        -2.67000
O          2.67000        -0.89000        -2.67000
O          0.89000        -2.67000        -2.67000
Si         3.56000         3.56000         0.00000
Si        -3.56000         3.56000         0.00000
Si         3.56000        -3.56000         0.00000
Si        -3.56000        -3.56000         0.00000
Si         3.56000         0.00000         3.56000
Si        -3.56000         0.00000         3.56000
Si         0.00000         3.56000         3.56000
Si         0.00000        -3.56000         3.56000
Si         3.56000         0.00000        -3.56000
Si        -3.56000         0.00000        -3.56000
Si         0.00000         3.56000        -3.56000
Si         0.00000        -3.56000        -3.56000
O         -4.45000         2.67000         0.89000
O         -2.67000         4.45000         0.89000
O          4.45000        -2.67000         0.89000
O          2.67000        -4.45000         0.89000
O         -4.45000         0.89000         2.67000
O         -0.89000         4.45000         2.67000
O          4.45000        -0.89000         2.67000
O          0.89000        -4.45000         2.67000
O         -2.67000         0.89000         4.45000
O         -0.89000         2.67000         4.45000
O          2.67000        -0.89000         4.45000
O          0.89000        -2.67000         4.45000
O          4.45000         2.67000        -0.89000
O          2.67000         4.45000        -0.89000
O         -4.45000        -2.67000        -0.89000
O         -2.67000        -4.45000        -0.89000
O          4.45000         0.89000        -2.67000
O          0.89000         4.45000        -2.67000
O         -4.45000        -0.89000        -2.67000
O         -0.89000        -4.45000        -2.67000
O          2.67000         0.89000        -4.45000
O          0.89000         2.67000        -4.45000
O         -2.67000        -0.89000        -4.45000
O         -0.89000        -2.67000        -4.45000
Si        -5.34000         1.78000         1.78000
Si        -1.78000         5.34000         1.78000
Si         5.34000        -1.78000         1.78000
Si         1.78000        -5.34000         1.78000
Si        -1.78000         1.78000         5.34000
Si         1.78000        -1.78000         5.34000
Si         5.34000         1.78000        -1.78000
Si         1.78000         5.34000        -1.78000
Si        -5.34000        -1.78000        -1.78000
Si        -1.78000        -5.34000        -1.78000
Si         1.78000         1.78000        -5.34000
Si        -1.78000        -1.78000        -5.34000
O         -6.23000         0.89000         0.89000
O          4.45000         4.45000         0.89000
O         -0.89000         6.23000         0.89000
O          6.23000        -0.89000         0.89000
O         -4.45000        -4.45000         0.89000
O          0.89000        -6.23000         0.89000
O          4.45000         0.89000         4.45000
O          0.89000         4.45000         4.45000
O         -4.45000        -0.89000         4.45000
O         -0.89000        -4.45000         4.45000
O         -0.89000         0.89000         6.23000
O          0.89000        -0.89000         6.23000
O          6.23000         0.89000        -0.89000
O         -4.45000         4.45000        -0.89000
O          0.89000         6.23000        -0.89000
O         -6.23000        -0.89000        -0.89000
O          4.45000        -4.45000        -0.89000
O         -0.89000        -6.23000        -0.89000
O         -4.45000         0.89000        -4.45000
O         -0.89000         4.45000        -4.45000
O          4.45000        -0.89000        -4.45000
O          0.89000        -4.45000        -4.45000
O          0.89000         0.89000        -6.23000
O         -0.89000        -0.89000        -6.23000
Si         7.12000         0.00000         0.00000
Si        -7.12000         0.00000         0.00000
Si         0.00000         7.12000         0.00000
Si         0.00000        -7.12000         0.00000
Si         0.00000         0.00000         7.12000
Si         0.00000         0.00000        -7.12000
O         -6.23000         2.67000         2.67000
O         -2.67000         6.23000         2.67000
O          6.23000        -2.67000         2.67000
O          2.67000        -6.23000         2.67000
O         -2.67000         2.67000         6.23000
O          2.67000        -2.67000         6.23000
O          6.23000         2.67000        -2.67000
O          2.67000         6.23000        -2.67000
O         -6.23000        -2.67000        -2.67000
O         -2.67000        -6.23000        -2.67000
O          2.67000         2.67000        -6.23000
O         -2.67000        -2.67000        -6.23000
Si         5.34000         5.34000         1.78000
Si        -5.34000        -5.34000         1.78000
Si         5.34000         1.78000         5.34000
Si         1.78000         5.34000         5.34000
Si        -5.34000        -1.78000         5.34000
Si        -1.78000        -5.34000         5.34000
Si        -5.34000         5.34000        -1.78000
Si         5.34000        -5.34000        -1.78000
Si        -5.34000         1.78000        -5.34000
Si        -1.78000         5.34000        -5.34000
Si         5.34000        -1.78000        -5.34000
Si         1.78000        -5.34000        -5.34000
O          8.01000         0.89000         0.89000
O          0.89000         8.01000         0.89000
O         -8.01000        -0.89000         0.89000
O         -0.89000        -8.01000         0.89000
O          6.23000         4.45000         2.67000
O          4.45000         6.23000         2.67000
O         -6.23000        -4.45000         2.67000
O         -4.45000        -6.23000         2.67000
O          6.23000         2.67000         4.45000
O          2.67000         6.23000         4.45000
O         -6.23000        -2.67000         4.45000
O         -2.67000        -6.23000         4.45000
O          4.45000         2.67000         6.23000
O          2.67000         4.45000         6.23000
O         -4.45000        -2.67000         6.23000
O         -2.67000        -4.45000         6.23000
O          0.89000         0.89000         8.01000
O         -0.89000        -0.89000         8.01000
O         -8.01000         0.89000        -0.89000
O         -0.89000         8.01000        -0.89000
O          8.01000        -0.89000        -0.89000
O          0.89000        -8.01000        -0.89000
O         -6.23000         4.45000        -2.67000
O         -4.45000         6.23000        -2.67000
O          6.23000        -4.45000        -2.67000
O          4.45000        -6.23000        -2.67000
O         -6.23000         2.67000        -4.45000
O         -2.67000         6.23000        -4.45000
O          6.23000        -2.67000        -4.45000
O          2.67000        -6.23000        -4.45000
O         -4.45000         2.67000        -6.23000
O         -2.67000         4.45000        -6.23000
O          4.45000        -2.67000        -6.23000
O          2.67000        -4.45000        -6.23000
O         -0.89000         0.89000        -8.01000
O          0.89000        -0.89000        -8.01000
Si         7.12000         3.56000         3.56000
Si        -7.12000         3.56      -4.45000        -4.45000        -6.23000
O          0.89000        -6.23000        -6.23000
O         -2.67000         2.67000        -8.01000
O          2.67000        -2.67000        -8.01000
Si         8.90000         1.78000         1.78000
Si         1.78000         8.90000         1.78000
Si        -8.90000        -1.78000         1.78000
Si        -1.78000        -8.90000         1.78000
Si        -5.34000         5.34000         5.34000
Si         5.34000        -5.34000         5.34000
Si         1.78000         1.78000         8.90000
Si        -1.78000        -1.78000         8.90000
Si        -8.90000         1.78000        -1.78000
Si        -1.78000         8.90000        -1.78000
Si         8.90000        -1.78000        -1.78000
Si         1.78000        -8.90000        -1.78000
Si         5.34000         5.34000        -5.34000
Si        -5.34000        -5.34000        -5.34000
Si        -1.78000         1.78000        -8.90000
Si         1.78000        -1.78000        -8.90000
O         -8.01000         4.45000         2.67000
O         -4.45000         8.01000         2.67000
O          8.01000        -4.45000         2.67000
O          4.45000        -8.01000         2.67000
O         -8.01000         2.67000         4.45000
O         -2.67000         8.01000         4.45000
O          8.01000        -2.67000         4.45000
O          2.67000        -8.01000         4.45000
O         -4.45000         2.67000         8.01000
O         -2.67000         4.45000         8.01000
O          4.45000        -2.67000         8.01000
O          2.67000        -4.45000         8.01000
O          8.01000         4.45000        -2.67000
O          4.45000         8.01000        -2.67000
O         -8.01000        -4.45000        -2.67000
O         -4.45000        -8.01000        -2.67000
O          8.01000         2.67000        -4.45000
O          2.67000         8.01000        -4.45000
O         -8.01000        -2.67000        -4.45000
O         -2.67000        -8.01000        -4.45000
O          4.45000         2.67000        -8.01000
O         -2.67000        -4.45000        -8.01000
